@<TRIPOS>MOLECULE
Structure2
50   53    1
SMALL
USER_CHARGES


@<TRIPOS>ATOM
      1 C1          3.4120    1.3310   24.3740 C.3       1 F9J         0.0000 
      2 C2          2.5890    1.5260   25.5870 C.ar      1 F9J         0.0000 
      3 C3          1.3260    2.0310   25.7770 C.ar      1 F9J         0.0000 
      4 C4          1.0960    1.9570   27.1720 C.ar      1 F9J         0.0000 
      5 N1          2.1650    1.4320   27.7870 N.2       1 F9J         0.0000 
      6 N2          3.0500    1.1800   26.8210 N.pl3     1 F9J         0.0000 
      7 N3         -0.0520    2.3490   27.8050 N.pl3     1 F9J         0.0000 
      8 C5         -1.2130    2.9170   27.2730 C.ar      1 F9J         0.0000 
      9 N4         -2.2120    3.0590   28.1590 N.ar      1 F9J         0.0000 
     10 C6         -3.3710    3.6030   27.7660 C.ar      1 F9J         0.0000 
     11 C7         -3.4790    3.9930   26.4470 C.ar      1 F9J         0.0000 
     12 C8         -2.4240    3.8210   25.5770 C.ar      1 F9J         0.0000 
     13 N5         -1.2680    3.2810   25.9810 N.ar      1 F9J         0.0000 
     14 O1         -2.6270    4.2550   24.2520 O.3       1 F9J         0.0000 
     15 C9         -1.5950    3.8520   23.3030 C.3       1 F9J         0.0000 
     16 C10        -2.1870    3.8430   21.9110 C.3       1 F9J         0.0000 
     17 C11        -0.4030    4.7670   23.3660 C.ar      1 F9J         0.0000 
     18 N6         -0.6040    6.0350   23.7610 N.ar      1 F9J         0.0000 
     19 C12         0.4790    6.8220   23.8410 C.ar      1 F9J         0.0000 
     20 C13         1.7270    6.3470   23.5230 C.ar      1 F9J         0.0000 
     21 C14         1.8440    5.0390   23.1180 C.ar      1 F9J         0.0000 
     22 N7          0.7760    4.2290   23.0380 N.ar      1 F9J         0.0000 
     23 F1          2.7910    7.1410   23.6010 F         1 F9J         0.0000 
     24 F2         -4.6030    4.5390   25.9930 F         1 F9J         0.0000 
     25 N8         -4.4310    3.7600   28.7200 N.pl3     1 F9J         0.0000 
     26 C15        -4.3100    3.0700   30.0050 C.3       1 F9J         0.0000 
     27 C16        -5.5890    2.3190   30.3550 C.3       1 F9J         0.0000 
     28 O2         -6.7480    3.1320   30.0840 O.3       1 F9J         0.0000 
     29 C17        -6.8000    3.5130   28.7060 C.3       1 F9J         0.0000 
     30 C18        -5.6600    4.4820   28.4350 C.3       1 F9J         0.0000 
     31 H1_1        3.9650    0.3940   24.4290 H         1 F9J         0.0000 
     32 H1_2        2.7810    1.3120   23.4850 H         1 F9J         0.0000 
     33 H1_3        4.1320    2.1420   24.2590 H         1 F9J         0.0000 
     34 HC3         0.6970    2.3760   24.9760 H         1 F9J         0.0000 
     35 HN2         3.9490    0.7590   27.0210 H         1 F9J         0.0000 
     36 HN3        -0.0790    2.1860   28.8020 H         1 F9J         0.0000 
     37 HC9        -1.2770    2.8260   23.5030 H         1 F9J         0.0000 
     38 H101       -1.4450    3.5570   21.1650 H         1 F9J         0.0000 
     39 H102       -2.9980    3.1230   21.8540 H         1 F9J         0.0000 
     40 H103       -2.5800    4.8220   21.6380 H         1 F9J         0.0000 
     41 HC12        0.3320    7.8350   24.1810 H         1 F9J         0.0000 
     42 HC14        2.7890    4.6050   22.8410 H         1 F9J         0.0000 
     43 H151       -4.1260    3.8330   30.7620 H         1 F9J         0.0000 
     44 H152       -3.4660    2.3900   30.0560 H         1 F9J         0.0000 
     45 H161       -5.5830    2.0310   31.4060 H         1 F9J         0.0000 
     46 H162       -5.6540    1.3960   29.7760 H         1 F9J         0.0000 
     47 H171       -7.7530    4.0100   28.5250 H         1 F9J         0.0000 
     48 H172       -6.7630    2.6430   28.0470 H         1 F9J         0.0000 
     49 H181       -5.8220    5.0110   27.5110 H         1 F9J         0.0000 
     50 H182       -5.7160    5.2790   29.1770 H         1 F9J         0.0000 
@<TRIPOS>BOND
     1    1    2 1    
     2    1   31 1    
     3    1   32 1    
     4    1   33 1    
     5    2    3 ar   
     6    2    6 ar   
     7    3    4 ar   
     8    3   34 1    
     9    4    5 ar   
    10    4    7 1    
    11    5    6 ar   
    12    6   35 1    
    13    7    8 1    
    14    7   36 1    
    15    8    9 ar   
    16    8   13 ar   
    17    9   10 ar   
    18   10   11 ar   
    19   10   25 1    
    20   11   12 ar   
    21   11   24 1    
    22   12   13 ar   
    23   12   14 1    
    24   14   15 1    
    25   15   16 1    
    26   15   17 1    
    27   15   37 1    
    28   16   38 1    
    29   16   39 1    
    30   16   40 1    
    31   17   18 ar   
    32   17   22 ar   
    33   18   19 ar   
    34   19   20 ar   
    35   19   41 1    
    36   20   21 ar   
    37   20   23 1    
    38   21   22 ar   
    39   21   42 1    
    40   25   26 1    
    41   25   30 1    
    42   26   27 1    
    43   26   43 1    
    44   26   44 1    
    45   27   28 1    
    46   27   45 1    
    47   27   46 1    
    48   28   29 1    
    49   29   30 1    
    50   29   47 1    
    51   29   48 1    
    52   30   49 1    
    53   30   50 1    
@<TRIPOS>SUBSTRUCTURE
     1 F9J         1 GROUP             0 A     ****    0 ROOT    
